Version 4
SHEET 1 1648 984
WIRE -512 -128 -560 -128
WIRE -464 -128 -512 -128
WIRE -240 -32 -240 -64
WIRE -240 64 -240 48
WIRE 128 128 -288 128
WIRE 448 144 288 144
WIRE 128 160 -16 160
WIRE -288 208 -416 208
WIRE -416 224 -416 208
WIRE 16 240 -288 240
WIRE 448 240 448 144
WIRE 528 240 448 240
WIRE 928 256 688 256
WIRE 528 272 448 272
WIRE 928 288 800 288
WIRE -288 320 -416 320
WIRE -96 352 -288 352
WIRE 16 352 16 240
WIRE 128 352 16 352
WIRE 448 368 448 272
WIRE 448 368 288 368
WIRE 128 384 -64 384
WIRE 1088 416 1088 272
WIRE 1360 416 1088 416
WIRE -288 432 -416 432
WIRE 1616 432 1520 432
WIRE 1360 448 1088 448
WIRE -192 480 -288 480
WIRE -96 544 -96 352
WIRE 128 544 -96 544
WIRE -288 560 -416 560
WIRE 448 560 288 560
WIRE 128 576 32 576
WIRE -16 608 -16 160
WIRE -16 608 -528 608
WIRE 32 608 32 576
WIRE 32 608 -16 608
WIRE 928 608 832 608
WIRE 448 624 448 560
WIRE 528 624 448 624
WIRE 1088 624 1088 448
WIRE -192 640 -192 480
WIRE 16 640 -192 640
WIRE 928 640 688 640
WIRE 528 656 448 656
WIRE -528 704 -528 608
WIRE -448 704 -528 704
WIRE -368 704 -448 704
WIRE -368 720 -368 704
WIRE -336 720 -368 720
WIRE -64 736 -64 384
WIRE -64 736 -176 736
WIRE -48 736 -64 736
WIRE 16 736 16 640
WIRE 128 736 16 736
WIRE -368 752 -368 720
WIRE -336 752 -368 752
WIRE 448 752 448 656
WIRE 448 752 288 752
WIRE -48 768 -48 736
WIRE 128 768 -48 768
WIRE -448 784 -576 784
WIRE -384 832 -448 832
WIRE -368 832 -384 832
WIRE -368 864 -368 832
WIRE -336 864 -368 864
WIRE 832 880 832 608
WIRE 832 880 -176 880
WIRE -368 896 -368 864
WIRE -336 896 -368 896
WIRE -448 912 -576 912
WIRE -384 976 -384 832
WIRE 800 976 800 288
WIRE 800 976 -384 976
FLAG 208 64 VDD
FLAG -240 -64 VDD
FLAG -240 64 0
FLAG -512 -128 y
FLAG -416 224 0
FLAG -416 320 0
FLAG -416 432 0
FLAG -416 560 0
FLAG -576 784 0
FLAG -576 912 0
FLAG 208 288 VDD
FLAG 208 480 VDD
FLAG 208 672 VDD
FLAG -256 656 VDD
FLAG -256 800 VDD
FLAG 1616 432 y
FLAG 608 176 VDD
FLAG 1008 192 VDD
FLAG 1008 544 VDD
FLAG 608 560 VDD
FLAG 1440 352 VDD
SYMBOL NAND 208 144 R0
SYMATTR InstName X1
SYMBOL voltage -288 112 R0
WINDOW 3 -379 51 Left 2
WINDOW 123 0 0 Left 0
WINDOW 39 0 0 Left 0
SYMATTR InstName in3
SYMATTR Value PULSE(0 1 2n 10p 10p 16n 32n)
SYMBOL voltage -288 224 R0
WINDOW 3 -391 55 Left 2
WINDOW 123 0 0 Left 0
WINDOW 39 0 0 Left 0
SYMATTR InstName in2
SYMATTR Value PULSE(0 1 2n 10p 10p 8n 16n)
SYMBOL voltage -240 -48 R0
WINDOW 123 0 0 Left 0
WINDOW 39 0 0 Left 0
SYMATTR InstName V3
SYMATTR Value 1
SYMBOL res -576 -144 R0
SYMATTR InstName R1
SYMATTR Value 200k
SYMBOL cap -480 -128 R0
SYMATTR InstName C1
SYMATTR Value 200f
SYMBOL voltage -288 336 R0
WINDOW 3 -391 55 Left 2
WINDOW 123 0 0 Left 0
WINDOW 39 0 0 Left 0
SYMATTR InstName in1
SYMATTR Value PULSE(0 1 2n 10p 10p 4n 8n)
SYMBOL voltage -288 464 R0
WINDOW 3 -391 55 Left 2
WINDOW 123 0 0 Left 0
WINDOW 39 0 0 Left 0
SYMATTR InstName in0
SYMATTR Value PULSE(0 1 2n 10p 10p 2n 4n)
SYMBOL voltage -448 688 R0
WINDOW 3 -391 55 Left 2
WINDOW 123 0 0 Left 0
WINDOW 39 0 0 Left 0
SYMATTR InstName in4
SYMATTR Value PULSE(0 1 2n 10p 10p 32n 64n)
SYMBOL voltage -448 816 R0
WINDOW 3 -391 55 Left 2
WINDOW 123 0 0 Left 0
WINDOW 39 0 0 Left 0
SYMATTR InstName in5
SYMATTR Value PULSE(0 1 2n 10p 10p 64n 128n)
SYMBOL NAND 208 368 R0
SYMATTR InstName X4
SYMBOL NAND 208 560 R0
SYMATTR InstName X5
SYMBOL NAND 208 752 R0
SYMATTR InstName X6
SYMBOL NAND -256 736 R0
SYMATTR InstName X7
SYMBOL NAND -256 880 R0
SYMATTR InstName X8
SYMBOL NAND 608 256 R0
SYMATTR InstName X9
SYMBOL NAND 608 640 R0
SYMATTR InstName X10
SYMBOL NAND 1008 272 R0
SYMATTR InstName X11
SYMBOL NAND 1008 624 R0
SYMATTR InstName X12
SYMBOL NAND 1440 432 R0
SYMATTR InstName X13
TEXT -592 8 Left 2 !.include 90nm_bulk.txt
TEXT -584 40 Left 2 !.tran 0 130n 0 1p
