Version 4
SHEET 1 1648 1260
WIRE -512 -128 -560 -128
WIRE -464 -128 -512 -128
WIRE -672 -48 -736 -48
WIRE -560 -48 -672 -48
WIRE -240 -32 -240 -64
WIRE -672 -16 -672 -48
WIRE -464 -16 -464 -64
WIRE -464 -16 -672 -16
WIRE -240 64 -240 48
WIRE -288 128 -352 128
WIRE 128 128 16 128
WIRE 448 144 288 144
WIRE 128 160 16 160
WIRE -288 208 -416 208
WIRE -416 224 -416 208
WIRE -288 240 -352 240
WIRE 448 240 448 144
WIRE 528 240 448 240
WIRE 928 256 688 256
WIRE 528 272 448 272
WIRE 928 288 848 288
WIRE -288 320 -416 320
WIRE -288 352 -352 352
WIRE 128 352 16 352
WIRE 448 368 448 272
WIRE 448 368 288 368
WIRE 128 384 16 384
WIRE 1088 416 1088 272
WIRE 1360 416 1088 416
WIRE -288 432 -416 432
WIRE 1616 432 1520 432
WIRE 1360 448 1088 448
WIRE -288 480 -352 480
WIRE 128 544 16 544
WIRE -288 560 -416 560
WIRE 448 560 288 560
WIRE 128 576 16 576
WIRE 928 608 848 608
WIRE 448 624 448 560
WIRE 528 624 448 624
WIRE 1088 624 1088 448
WIRE 928 640 688 640
WIRE 528 656 448 656
WIRE -592 688 -704 688
WIRE 128 736 16 736
WIRE 448 752 448 656
WIRE 448 752 288 752
WIRE -592 768 -720 768
WIRE 128 768 16 768
WIRE -592 816 -688 816
WIRE -592 896 -720 896
WIRE -784 1024 -896 1024
WIRE -544 1040 -624 1040
WIRE -784 1056 -896 1056
WIRE -784 1168 -896 1168
WIRE -544 1184 -624 1184
WIRE -784 1200 -896 1200
FLAG 208 64 VDD
FLAG -240 -64 VDD
FLAG -240 64 0
FLAG -512 -128 y
FLAG -416 224 0
FLAG -416 320 0
FLAG -416 432 0
FLAG -416 560 0
FLAG -720 768 0
FLAG -720 896 0
FLAG 208 288 VDD
FLAG 208 480 VDD
FLAG 208 672 VDD
FLAG -704 960 VDD
FLAG -704 1104 VDD
FLAG 1616 432 y
FLAG 608 176 VDD
FLAG 1008 192 VDD
FLAG 1008 544 VDD
FLAG 608 560 VDD
FLAG 1440 352 VDD
FLAG -352 128 x3
FLAG -352 240 x2
FLAG -352 352 x1
FLAG -352 480 x0
FLAG -704 688 d0
FLAG -688 816 d1
FLAG -544 1040 not_d0
FLAG -544 1184 not_d1
FLAG 16 128 x3
FLAG 16 352 x2
FLAG 16 544 x1
FLAG 16 736 x0
FLAG 16 160 d0
FLAG 16 384 not_d0
FLAG 16 576 d0
FLAG 16 768 not_d0
FLAG 848 288 d1
FLAG 848 608 not_d1
FLAG -896 1024 d0
FLAG -896 1056 d0
FLAG -896 1168 d1
FLAG -896 1200 d1
FLAG -736 -48 0
SYMBOL NAND 208 144 R0
SYMATTR InstName X1
SYMBOL voltage -288 112 R0
WINDOW 3 -379 51 Left 2
WINDOW 123 0 0 Left 0
WINDOW 39 0 0 Left 0
SYMATTR Value PULSE(0 1 2n 10p 10p 16n 32n)
SYMATTR InstName in3
SYMBOL voltage -288 224 R0
WINDOW 3 -391 55 Left 2
WINDOW 123 0 0 Left 0
WINDOW 39 0 0 Left 0
SYMATTR Value PULSE(0 1 2n 10p 10p 8n 16n)
SYMATTR InstName in2
SYMBOL voltage -240 -48 R0
WINDOW 123 0 0 Left 0
WINDOW 39 0 0 Left 0
SYMATTR InstName V3
SYMATTR Value 1
SYMBOL res -576 -144 R0
SYMATTR InstName R1
SYMATTR Value 200k
SYMBOL cap -480 -128 R0
SYMATTR InstName C1
SYMATTR Value 200f
SYMBOL voltage -288 336 R0
WINDOW 3 -391 55 Left 2
WINDOW 123 0 0 Left 0
WINDOW 39 0 0 Left 0
SYMATTR Value PULSE(0 1 2n 10p 10p 4n 8n)
SYMATTR InstName in1
SYMBOL voltage -288 464 R0
WINDOW 3 -391 55 Left 2
WINDOW 123 0 0 Left 0
WINDOW 39 0 0 Left 0
SYMATTR Value PULSE(0 1 2n 10p 10p 2n 4n)
SYMATTR InstName in0
SYMBOL voltage -592 672 R0
WINDOW 3 -391 55 Left 2
WINDOW 123 0 0 Left 0
WINDOW 39 0 0 Left 0
SYMATTR Value PULSE(0 1 2n 10p 10p 32n 64n)
SYMATTR InstName in4
SYMBOL voltage -592 800 R0
WINDOW 3 -391 55 Left 2
WINDOW 123 0 0 Left 0
WINDOW 39 0 0 Left 0
SYMATTR Value PULSE(0 1 2n 10p 10p 64n 128n)
SYMATTR InstName in5
SYMBOL NAND 208 368 R0
SYMATTR InstName X4
SYMBOL NAND 208 560 R0
SYMATTR InstName X5
SYMBOL NAND 208 752 R0
SYMATTR InstName X6
SYMBOL NAND -704 1040 R0
SYMATTR InstName X7
SYMBOL NAND -704 1184 R0
SYMATTR InstName X8
SYMBOL NAND 608 256 R0
SYMATTR InstName X9
SYMBOL NAND 608 640 R0
SYMATTR InstName X10
SYMBOL NAND 1008 272 R0
SYMATTR InstName X11
SYMBOL NAND 1008 624 R0
SYMATTR InstName X12
SYMBOL NAND 1440 432 R0
SYMATTR InstName X13
TEXT -592 8 Left 2 !.include 90nm_bulk.txt
TEXT -584 40 Left 2 !.tran 0 130n 0 1p
